all:
	../openfast Main_SparPendulumHydro.fst
ed:
	../openfast Main_SparPendulumHydro_ElastoDyn.fst
